     611
 i =      309, E =     -5032.7376653960
  S         6.6010788287       11.8977832200       21.9572479155
  S         7.0185356455       11.5457681449       29.7923906654
 Pb         7.1081084857        9.4075754504       21.4024669566
 Pb         7.4360308732        9.0470004617       29.1904195424
 Pb         7.4126912975       16.4642123353       27.0735770771
  S         7.6490348520        9.7915689519       18.8609625745
  S         8.4238656259        9.8005708220       26.8902080495
  S         7.5687630706       12.8858992469       16.1905521676
  S         8.3911976502       14.0382617411       26.4636980995
 Pb         8.2777244121       12.0734678648       23.9127652079
 Pb         8.1479597577       11.6318963366       32.1989612599
 Cl         9.5445569596       15.5592200543       18.1426285184
 Cl         8.0157065779       16.7737047296       29.6889551992
 Cl         9.6718540312        8.6807083022       15.5480160920
 Cl         9.6183620999        9.6316242862       23.0240878859
 Cl         9.5235144307        9.3490154098       31.4048171661
 Cl         9.9599614136       14.3651480506       22.9631527312
 Cl         9.8242858595       13.5847425591       31.3063541929
 Pb         8.1557235114       12.5539152165       18.7049967232
 Pb         9.4225331622       12.0879011790       28.0683332389
 Pb        10.4090311446       11.5409662953       36.8486363459
 Pb        10.3283295759       19.9036536131       26.9558868634
  S        11.3693356698       16.3103659301       14.1285324859
  S         9.8114024505       17.3512063503       26.3846740720
  S        11.0494555621       16.9718886999       32.1519993040
  S        12.5551474839       19.9720893542       25.5129923007
  S        10.7977427193       11.7403560610       17.6711929716
  S        11.1321809897       11.8122846070       25.5877859142
  S        10.6993003330       11.5305211526       34.1945578811
 Pb        10.1659416161        9.0942383833       18.1867909967
 Pb        10.9494882677        9.1470457668       25.7820302304
 Pb        11.2700779130        8.9759581349       34.0233908690
 Pb         9.9350979561       13.7738266763       15.7393845605
 Pb        10.9601384164       14.7396064694       25.5985105514
 Pb        11.4658076666       14.7481468498       33.4313032679
 Pb        11.2310536596       16.1059617702       20.2050012437
 Pb        10.8413670586       16.5242273982       29.4338488660
  S        11.6301073422       18.8625909057       21.5607299623
  S        11.6145769396       19.1909498374       29.3617488822
  S        12.4772241542        8.7659886753       12.5727690756
  S        12.5050217396        9.8527999933       20.4852861739
  S        12.5775089383        9.6200968885       28.2384484892
  S        11.8168980802        9.2115811845       36.8742853620
  S        11.4936318393       12.5714394236       13.0340917386
  S        12.8560720290       13.8465969566       20.5005919062
  S        12.5124808456       13.6380421920       28.4858826333
  S        12.7149326721       12.8330607800       37.5656322381
 Pb        11.9024563961       10.3358912752       14.7844386925
 Pb        12.5215764198       11.7799807808       22.5145544662
 Pb        12.4747388771       11.5731885566       30.3425440256
 Pb        13.0448736445       10.0432611701       39.1985225128
 Pb        12.6239786373       18.0875298851       15.3935786769
 Pb        12.3631313184       17.7385427968       23.8567340433
 Pb        12.9866122611       18.9580015371       31.7829736286
 Cl        13.1762549378       17.1221056134       18.3565347352
 Cl        13.7680059255       16.5697014870       27.1776316650
 Cl        13.4416632552       16.2241386340       35.4675182621
  S        13.8057879783       22.0699495752       19.3529251662
 Cl        14.0460491373       22.4988103688       27.5459933475
 Cl        13.9008362233        8.9651137778       16.8117002668
 Cl        13.7019164804        9.5010107471       24.2946497447
 Cl        13.5918655836        9.4038151455       32.6626099825
 Cl        14.1915680491        7.6268868904       39.8934047470
 Cl        13.8298610657       13.9027811697       16.2014859782
 Cl        14.0512734162       13.9661318709       24.3388845745
 Cl        13.7557665063       13.8373268503       32.2326994392
 Pb        13.4014438244       11.1367336772       11.6201898909
 Pb        13.2709078706       11.7826250454       18.6973635270
 Pb        13.6156933146       11.7605791390       26.7300517795
 Pb        13.9837106120       11.1778741191       35.7321018091
 Pb        14.0406595357       19.4235521989       20.6343865921
 Pb        13.9999463773       19.4024967048       27.7495841116
 Pb        14.1672509583       18.7805419209       36.3758573741
  S        15.0894934835       17.1551470181       14.6592207602
  S        14.9335611233       17.2830376626       22.8166554746
  S        14.9102033620       17.2670170910       30.8012198332
  S        15.4199285312       17.5729261792       38.3335470471
  S        15.0037132745       21.2380192725       22.7924434867
  S        15.0271763523       21.0630723535       30.7915277415
  S        14.8955424983       11.0040696261       14.0748911014
  S        15.3841367031       11.5867271497       21.9664106211
  S        15.2245415296       11.4809944969       29.9122025056
  S        15.4256528712       10.4828646400       38.0797113585
 Pb        14.9357665714        8.2939627857       13.5986006505
 Pb        14.8580990509        8.9543777486       21.3954896529
 Pb        15.0717505331        8.8515706401       29.1621206360
 Pb        15.9627469908        7.9520054679       37.4237618186
 Pb        13.3065673233       14.5777504329       13.4349337745
 Pb        15.3986409779       14.4222099951       21.3537865069
 Pb        15.0520745942       14.6216695556       29.1156800473
 Pb        14.9833436614       14.5352966669       37.3069905917
 Pb        15.2389525363       23.2795863288       21.2077891982
 Pb        16.0651668914       23.5462206826       29.0083852428
 Pb        15.6034652373       15.8453205298       16.9618771160
 Pb        15.9433290902       16.2446671236       25.1573877336
 Pb        16.0020890684       16.1674514634       33.0577780644
 Pb        15.8008592466       22.0376617926       17.5958324953
 Pb        16.1750608578       22.1015048927       25.3129435109
 Pb        15.8492304987       21.7268605419       33.1808099555
  S        15.9616639701       19.4080156326       17.5683484772
  S        16.2395843876       19.1960588579       25.7687221824
  S        15.7353862259       18.9035522923       34.1709543175
  S        16.2144360796        9.2472389292       11.2762878137
  S        16.6902820741        9.2778610493       19.1307838466
  S        16.6189602817        9.5231148421       27.0036730075
  S        16.7345021144        9.2543697572       35.0331890112
  S        19.1611273523        7.7583805884       42.7387514732
  S        15.9713902682       13.4420945262       11.4806747113
  S        16.5580631959       13.4446624347       18.9428794846
  S        16.6603188563       13.6491532368       26.9421426463
  S        16.0164359252       13.1796939737       35.1921656923
  S        16.9543795589       24.6101936005       26.7150203233
 Pb        16.0170241323       10.8327277936       16.7989094264
 Pb        16.4757847833       11.5224797885       24.5672562413
 Pb        16.3598135436       11.4420997371       32.4854335861
 Pb        17.3339626861        8.9849106766       41.3243828152
 Pb        17.0896917318       19.0256447850       15.0257266370
 Pb        17.0441233432       19.1880786747       23.0866828878
 Pb        16.9998673713       19.1328412475       30.6305941924
 Pb        17.3235957709       18.8687780179       39.5088469679
 Cl        17.9792922951       21.4662576637       12.1872208940
 Cl        17.6790507066       16.7797826466       20.1061770413
 Cl        17.7345555238       16.8289738198       28.3791700736
 Cl        17.8734343354       16.1992247706       36.0784110258
 Cl        17.6760166899       22.3290972684       19.8258460129
 Cl        17.7999723356       21.4058473648       28.4516109791
  S        17.5669438996       21.6648305944       36.2059145403
 Cl        17.8365783879        9.0422529773       15.4189802374
 Cl        17.9738421913        9.3204556022       23.3626574156
 Cl        17.8618348555        9.3237276911       31.2551460721
 Cl        18.3271364795        8.1585189833       38.8507060240
 Cl        17.7186626431       14.0824271635       15.3904635634
 Cl        18.0361150539       13.7942911070       23.3494762084
 Cl        17.5653187083       13.8724597907       31.4566745456
 Cl        17.6557443329       13.7120563366       38.9470499850
 Cl        18.5970438627       24.7437510090       23.1849612910
 Cl        17.0573465115       24.4934817178       32.6462052786
 Pb        17.1834195005       11.4157078503       12.6551437737
 Pb        17.8333689893       11.4284016226       20.3138198894
 Pb        17.8469795929       11.6090289211       28.3056730081
 Pb        17.8169617721       11.4300136744       36.2579928576
 Pb        19.3247856443       19.2922372480       11.0680334661
 Pb        18.4875781829       19.1266167606       18.6042898749
 Pb        18.8169585986       19.1358793748       26.5504669476
 Pb        18.3820442608       19.1898825426       34.9001333985
  S        18.8107470976       17.3988732331       16.4670022123
  S        18.8136665655       17.0334530111       24.5581488538
  S        18.6942975909       17.0816356139       32.5354896485
  S        18.7202679368       16.8747354770       40.6564645880
  S        19.0818369348       21.4025328023       16.3991913235
  S        18.8972746498       21.3228527634       24.6241897979
  S        18.6032099892       21.1276244895       32.6822482242
  S        18.6734612247       11.3800990669        9.4518981805
  S        19.2942872821       11.4838561957       17.6754900610
  S        19.3479416041       11.5067961219       25.8263179923
  S        19.2251846987       11.5303530299       33.7940994080
  S        19.0326746541       11.1649517403       41.4803226256
  S        20.3434213531       26.8583831496       25.7192823980
 Pb        18.5682037011        8.7951136079       10.1740830732
 Pb        19.1954665295        8.7666506743       17.9697239865
 Pb        19.1536540778        8.8241051464       25.9710808361
 Pb        19.1729092519        8.8076666579       33.8342455637
 Pb        20.1289791087        9.9189768382       43.6141937129
 Pb        18.1574957844       14.0053658066       10.2417462493
 Pb        19.0409709672       14.3561330925       18.1879779383
 Pb        19.2788872076       14.4845433987       26.0809534583
 Pb        19.5488634683       14.8266862944       34.0895996023
 Pb        18.5066685807       13.8431182041       41.4896921854
 Pb        19.9950299537       23.4361768387       18.1181329446
 Pb        19.5083523876       24.1632435703       26.1738422920
 Pb        18.9251672938       23.2824164592       34.2986235684
 Pb        19.7761811452       15.6079472953       14.2022198548
 Pb        19.8874173344       16.2515491673       22.0611276040
 Pb        19.8711647472       16.1903232639       30.1016438022
 Pb        19.8007462397       15.9173228327       38.1986312960
 Pb        20.2471142549       22.0801811408       14.1274128858
 Pb        20.2780995639       21.9808217965       22.3552683446
 Pb        20.3930651425       21.8434422897       30.1491119261
 Pb        19.4527678505       21.6778115919       38.0417548955
  S        20.5251690957       19.4620168770       13.4580752689
  S        20.1089935327       19.1695002816       21.6642320572
  S        20.2325478941       19.0451453833       29.7854758627
  S        19.6836462347       19.0274631752       37.7790457737
  S        20.5380244262        9.5047392391       12.1607161221
  S        20.7701738702        9.4806920203       20.4786582925
  S        20.8159705738        9.4728590942       28.5272672707
  S        20.8727754137        9.4281806021       36.3993627309
  S        20.4113260674       13.5560908311       12.3819979608
  S        20.7108993935       13.5446943282       20.5292076562
  S        20.7277114998       13.5274636768       28.6373039132
  S        20.8602214373       13.4170253610       36.6635576130
  S        21.4633640716       24.8999207782       20.3194813573
  S        21.0235082390       24.8497068091       29.0027442826
 Pb        20.3432116485       11.3135340879       14.3059140448
 Pb        20.6484281808       11.4217786987       22.6707194728
 Pb        20.6974898210       11.4140018247       30.6230094396
 Pb        20.5515642345       11.3118218859       38.5002896498
 Pb        20.7011718043       26.3942270687       23.0306201167
 Pb        20.7559545575       26.1726212106       31.3305720417
 Pb        21.3141877830       18.8112990880       16.2123345720
 Pb        21.4167633528       18.9375805503       24.1961951838
 Pb        21.3650731518       18.9451777823       32.3488473453
 Pb        20.9820600443       18.6470870581       40.7873924551
 Cl        18.1796927601       16.9857395628       11.9967982741
 Cl        21.5264754867       16.9273767587       18.9102363062
 Cl        21.8340022462       16.6052904716       27.3556280256
 Cl        21.5051297997       16.6692702776       35.1937934933
 Cl        21.6188957286       21.4321241079       19.0930962177
 Cl        21.6600124654       21.4595263176       27.4455885486
 Cl        21.5064737163       22.2623949765       36.0165895117
 Cl        21.8478732779        9.3049188740        8.3658725702
 Cl        21.9049809554        9.2388460384       16.2429341037
 Cl        21.9674134052        9.3780389890       24.4408072378
 Cl        21.9995538832        9.3282890629       32.4343155642
 Cl        23.1446051188        9.8713818234       42.9538051761
 Cl        20.9710645761       14.0802215323        8.2826785812
 Cl        21.5710007107       13.9270147603       15.9875431895
 Cl        21.8873600224       13.7848863781       24.4127775771
 Cl        21.8249696905       13.9240867120       32.4895792946
 Cl        21.0066338149       14.0059001234       40.4566311240
 Cl        21.9367241383       24.7410430966       16.4874226732
 Cl        22.1795975100       24.2834460938       23.8526817692
 Cl        21.3918375032       23.9008167943       32.6394287886
 Pb        21.2261963027       11.4932947280       10.1653418942
 Pb        21.7374197362       11.5012586157       18.8990126842
 Pb        21.8674495170       11.5071123641       26.9968623952
 Pb        21.8021778421       11.4517472415       34.8018941707
 Pb        24.4789025971       11.4514920191       44.8535776761
 Pb        22.9361681461       26.4068758931       18.7319937454
 Pb        22.0885087011       27.0641518598       27.6750449136
 Pb        23.1228300989       19.0468426222       12.6709452608
 Pb        22.6589762727       18.9042715189       20.6146652311
 Pb        22.7910812053       18.9948713804       28.6862452386
 Pb        22.4773027190       19.1059200854       37.0866865537
 Pb        44.8015428613        9.1782122321       22.1953001236
  S        22.7665275121       16.9992419547       14.6278365785
  S        22.7738645948       16.9913702074       22.7691524571
  S        22.9280385361       17.0652390618       31.1059019733
  S        22.6337931897       17.2285880636       39.0869448525
  S        23.0754613358       21.3721488557       15.0191970169
  S        22.8791660796       21.0154894495       22.9970862604
  S        22.9240633025       21.0429857075       31.0412263510
  S        22.5635501391       20.9895342509       39.2743905617
  S        23.3006279518       11.2821675544       13.8524256159
  S        23.4300667134       11.4649260421       21.9740155764
  S        23.4690810541       11.5332168356       30.0289249007
  S        23.3637149142       11.2977242702       38.4771213867
  S        24.4816445084       26.7977517298       21.5301084680
  S        23.3404463813       26.7292913735       31.0361691152
 Pb        22.9517368291        8.6685290021       13.1068076183
 Pb        23.2633240959        8.7773719732       21.3924664019
 Pb        23.3327389977        8.8260154761       29.4798615196
 Pb        23.3536110825        8.6906780775       37.3769219142
 Pb        23.1583125480       13.9838918044       13.1815653769
 Pb        23.3794052618       14.2477534507       21.1917745485
 Pb        23.3558634791       14.4214354997       29.2961535807
 Pb        23.4093115019       14.0285524640       37.5577455197
 Pb        24.1468823274       23.5168323982       13.7320464601
 Pb        23.9449293583       24.0199679494       21.2806122379
 Pb        23.7438208873       24.2696058700       29.6775980101
 Pb        23.5197699632       22.9267645785       37.8738559003
 Pb        22.4886133016       15.4858701151        9.9530471002
 Pb        24.0328489258       15.7646654793       16.9352395495
 Pb        24.0223745149       15.7658087631       25.1391073946
 Pb        24.0691215318       15.9680220880       33.4332084591
 Pb        23.7267311411       15.5456802660       41.3856145446
 Pb        24.1776696822       21.7902502179       17.5160728802
 Pb        24.0077827780       21.7915859994       25.3922948932
 Pb        23.9906958949       21.8653366921       33.5051661873
  S        22.1357473154       18.4305152542       10.1404761160
  S        24.1827947360       19.0524900194       17.7778778284
  S        24.1143699191       19.0605085380       25.8834174789
  S        24.0859141880       19.0520416813       34.0387805704
  S        23.1312016189       17.9718567466       42.5201880308
  S        24.7768062837        9.0739793305       10.9817467668
  S        24.7207983233        9.2714285565       19.0533741554
  S        24.7719411913        9.4023766678       27.1159363998
  S        24.7055220335        9.3097798161       35.1377868498
  S        26.6684265766       10.0340658347       44.9663989936
  S        24.2959007868       13.0708604326       10.6858331065
  S        24.6745498296       13.4476182621       18.8664806117
  S        24.7779817099       13.6161778271       27.0241858531
  S        24.7607465448       13.4327845969       35.2988453566
  S        24.9627636171       13.4226071853       43.0636850677
  S        25.1397909050       24.7854109615       18.7004914194
  S        24.3902698313       25.4783969196       27.2645231947
  S        25.0035684561       24.5127873656       34.6647962301
 Pb        24.4029480278       10.4561334289        8.5465047411
 Pb        24.3790876811       10.9719930473       16.5703490135
 Pb        24.6169171150       11.3310617923       24.6224572028
 Pb        24.6695943839       11.3413596063       32.7199877599
 Pb        25.0003375601       11.1538075000       40.8601700948
 Pb        24.6437939075       26.6880030084       24.3763210657
 Pb        25.0599055658       26.6673899821       33.1441067034
 Pb        25.3846653408       19.0090429735       15.2290969209
 Pb        25.3825982513       18.9635912869       23.2418296492
 Pb        25.3197969289       18.8586021475       31.3635994730
 Pb        24.6328686084       18.8345181205       40.4561208825
 Cl        25.3003606917       16.8004723540       11.6142948646
 Cl        25.7846903151       16.6278478718       20.3173509523
 Cl        25.6954068805       16.8937663080       28.7384053140
 Cl        25.4541756091       17.0398892027       36.7902018266
 Cl        25.4816516262       21.7333067146       12.1362578355
 Cl        25.6507790024       21.2330260901       20.3738904789
 Cl        25.7891333060       21.8505145067       28.3513350916
 Cl        25.3130495832       21.2995233191       36.7733768079
  S        26.2666910377        8.7830253521        7.3463020218
 Cl        25.9368287384        9.0451756327       15.3243978440
 Cl        26.0815725784        9.2779394927       23.3114367840
 Cl        26.0165167886        9.2742002478       31.3076048271
 Cl        26.0196631586        8.9910513118       39.3553796569
 Cl        25.9042151380       12.9284482040        6.9233119692
 Cl        25.4470608029       13.8381653613       15.2564831464
 Cl        25.6857023989       13.9189010763       23.4346230653
 Cl        25.6889996830       13.9816153519       31.6356405146
 Cl        26.1895090096       13.3813249908       39.4015289771
  S        26.4756155225       24.2873478538       14.7694625062
 Cl        25.7886713943       24.2271279544       23.9127346637
 Cl        26.6748190958       25.2714402967       31.4322458071
 Pb        25.8133592867       11.2910958195       12.2119618730
 Pb        25.9503630008       11.3793295389       20.2503593608
 Pb        26.0097421506       11.4817080598       28.3602463682
 Pb        26.0747697399       11.2828860242       36.4359631984
 Pb        28.8614688078       11.5461049061       44.3462337723
 Pb        26.6910189532       26.6287678753       19.9730413820
 Pb        26.4464867139       27.2788155593       27.7430934548
 Pb        24.7396573506       18.3258370475        9.3519090511
 Pb        26.7584381593       18.9049440713       18.8153113463
 Pb        26.7122377421       18.8954902343       26.8409707227
 Pb        26.6234827151       19.0354777665       34.9151847451
  S        24.3514722666       16.0594814448        8.0732308951
  S        26.6961259677       16.9084488900       16.5845771437
  S        26.7522980635       16.9852845508       24.7096353227
  S        26.8145725829       17.0639661523       32.9367786813
  S        26.2731928640       16.6290889725       40.9531437951
  S        26.9715895191       21.0784103797       16.4465799536
  S        26.8457675735       21.0463129215       24.6446913732
  S        26.7036978618       21.3675664192       32.7751281076
  S        27.4177957052       11.2819226697        9.7419394155
  S        27.3688111642       11.3735317729       17.7544864379
  S        27.4292002051       11.4866241787       25.8134197384
  S        27.3710507129       11.3650346823       33.9099733845
  S        28.0063010781       11.2999903946       41.6498455337
  S        26.9453734235       27.6707267794       25.2023383513
 Pb        27.3973139165        8.4955535131        9.8682362699
 Pb        27.3697424136        8.6640565792       17.9752066895
 Pb        27.3441816257        8.7814377873       26.1487695235
 Pb        27.3826049117        8.6075733013       34.0342100439
 Pb        27.7456754301        8.7229034835       42.6643509832
 Pb        26.2176115655       14.3840619677        9.2739944833
 Pb        27.4335118915       14.3526966662       18.3299920812
 Pb        27.5323275933       14.3620398673       26.3323161879
 Pb        27.6075663319       14.1867620110       34.5384379339
 Pb        27.3485111256       14.0348950409       41.9892688727
 Pb        27.5408475729       23.7140218155       17.1879138748
 Pb        27.3652989043       23.2954463883       26.3168209794
 Pb        27.4830162913       23.6799756406       33.9446839221
 Pb        27.7644719170       16.0474761682       14.1307631729
 Pb        28.1071246636       16.1349443685       22.2553899986
 Pb        28.1419912077       15.8928835736       30.5554918708
 Pb        27.5139966169       16.2062796149       38.5199931719
 Pb        27.9478972142       22.0299892853       13.9266482073
 Pb        28.0961994951       21.9258196035       22.1276803402
 Pb        28.2961314712       21.9655591608       30.2342311467
 Pb        28.2222081088       21.5541741531       38.6493002165
  S        27.8885365024       18.8068869016       13.4577014065
  S        28.1036440636       18.9563511299       21.7255001956
  S        28.1321017931       19.2879365168       29.9943227499
  S        28.4388809378       18.8221954377       38.5872736237
  S        28.8466845647        9.3313068659       12.6674657036
  S        28.9767955415        9.3078908664       20.4795699102
  S        28.8054649456        9.3736737709       28.5741886488
  S        28.8780363760        8.8410308590       36.4224452704
  S        30.0267648009        9.2200479088       43.9760080554
  S        28.6989469609       13.3063017209       12.7413195302
  S        28.7776264275       13.3596807360       20.6434488710
  S        28.7666318024       13.5094426124       28.7599067165
  S        28.8548118197       13.1100239368       36.7961170320
  S        28.4479895745       24.8780204066       21.1168966707
  S        28.5878767420       25.5036261876       28.1895043534
 Pb        27.9801803672       10.8055519368        7.0687949050
 Pb        28.8289254215       11.3327538347       14.7736982461
 Pb        28.7927139682       11.1916173673       22.7075621748
 Pb        28.7023872872       11.2131137925       30.8293438400
 Pb        28.7076866395       10.4671646926       38.8169479243
 Pb        29.2485065678       26.4454163310       23.1663647143
 Pb        29.4623038779       26.8212494590       30.4185792689
 Pb        29.4929709951       19.1538651989       15.8688522695
 Pb        29.4396696444       19.0365374046       24.2763972857
 Pb        29.5633135533       19.2291282022       32.4848066406
 Pb        30.3858707207       18.9485499299       40.5456064832
 Cl        30.5268481746       15.7297214016       10.3586805658
 Cl        29.7111065013       16.4971091529       19.3065223947
 Cl        29.4522094654       16.7943587601       27.4584099502
 Cl        29.8828859320       16.4520822518       35.8011198438
 Cl        29.5655945601       21.4779784626       19.2716818488
 Cl        29.4802043419       21.6561681906       27.4383016246
 Cl        28.8836918979       21.8662354502       36.0069020681
 Cl        30.1106739716        9.3267316007        8.3788222381
 Cl        29.9999935327        9.0387309369       16.5775817508
 Cl        30.1562747111        9.3208272606       24.5509129674
 Cl        29.8672953630        9.0647538569       32.4296208813
 Cl        29.7126989591        8.1912872367       40.1106769480
 Cl        32.7396362913       13.5415325012        7.4331172512
 Cl        29.8213603312       13.7206290040       16.5293112756
 Cl        29.8791134956       13.7451382363       24.4259438967
 Cl        29.5868067650       13.9523415631       32.3642102903
 Cl        29.9525026467       15.2557149597       40.2939318553
 Cl        29.8809087476       23.5324169905       15.6231697101
 Cl        29.5492235971       24.0987758488       24.6335545866
 Cl        30.1495367223       24.6096741056       31.8610922169
 Pb        29.8176932065       11.3489088921       11.1045664125
 Pb        29.9383417258       11.4036128139       18.9225376879
 Pb        30.0175563348       11.4294861759       27.2092447085
 Pb        30.1885504756       11.0856453864       35.3786926025
 Pb        31.7662171859       10.0840111948       41.9306810773
 Pb        30.7485336758       26.5352376658       26.7958857669
 Pb        30.4492796717       18.4896944884       12.5113277172
 Pb        30.7145627962       19.1293942944       20.5200695306
 Pb        30.6813495885       18.9883140644       28.8690782208
 Pb        30.9452355084       19.4478509785       37.0300355950
  S        30.4830627767       16.6864100040       14.7044002881
  S        30.8686857290       17.0016425153       22.9342052778
  S        30.7529324727       17.1208933483       31.1163115749
  S        32.4243414847       18.0698548869       38.9957135718
  S        31.0401925105       20.5524795467       14.1263449006
  S        30.7629331443       21.0425990547       22.9496658053
  S        30.9898512525       21.1778998232       31.0949176884
  S        30.7577338356       21.3383567285       39.3146794905
  S        31.6194061953       11.2953830102       14.1349880023
  S        31.5496161001       11.3964836353       21.9977814230
  S        31.3837000427       11.3930577230       30.0590345776
  S        31.4343853836       10.8498516895       37.9893919592
  S        31.8740295974       26.3741595411       22.3818022940
  S        31.8154025214       26.8797770555       29.1992943547
 Pb        31.2767657975        8.6461162898       13.6893043681
 Pb        31.5465814497        8.7232489318       21.3407815971
 Pb        31.4728218516        8.6878223611       29.5059766523
 Pb        31.4489445109        8.2091892011       37.4534875998
 Pb        31.2975930244       14.1484503388       13.2812125273
 Pb        31.4419184338       14.3308839129       21.2979157487
 Pb        31.5358887761       14.2714947508       29.5010101128
 Pb        31.2754033806       14.3893445235       37.2679816310
 Pb        31.3133908520       23.9956047011       20.9449968691
 Pb        32.0843973152       24.0225259613       29.3978642747
 Pb        33.0442615138       15.2539982730        9.6311057549
 Pb        31.8924002969       16.1155171887       17.1879620492
 Pb        31.9144014055       15.9966344140       25.3389998083
 Pb        32.1086943672       16.1938494718       33.4633671712
 Pb        32.4368074014       14.9171921794       41.5387170537
 Pb        31.9584616136       22.4172972939       17.5357920907
 Pb        31.9023475299       21.8809054827       25.3913801535
 Pb        32.6799963274       22.6784024903       32.9163890153
  S        31.8973756311       18.8330215597       17.7281393255
  S        31.9897769117       19.0544371866       25.9941911089
  S        32.1179717758       18.8870333721       34.0998252039
  S        32.8919570692        9.1805433509       11.3570097433
  S        33.0226919062        9.2996346050       19.0315951528
  S        32.8674775724        9.4204526184       27.2292286999
  S        32.8415219726        9.0558627427       35.0817594067
  S        33.5687468213        9.4584737190       43.9143876855
  S        32.7264667755       12.9605384765       10.9671066836
  S        32.7125225919       13.4564637021       18.9387485267
  S        32.7391997488       13.4708156172       27.1913528818
  S        32.6658285886       13.1711565564       35.1469972446
  S        32.0479707020       12.7659520275       42.9501706366
  S        32.0082671271       24.7460117156       18.5804102051
  S        32.8593482138       24.7468862892       26.2487388144
 Pb        32.8818966643       11.0799993802        8.9534507188
 Pb        32.9922542063       11.4099952442       16.6498324178
 Pb        32.5965870638       11.3525621509       24.6612712869
 Pb        32.8328942216       11.1925442962       32.7360004288
 Pb        34.5868543637       11.9032798169       43.8517176436
 Pb        33.7014660288       26.4842365982       24.2787233458
 Pb        33.4690215473       19.0940011936       15.0101308384
 Pb        33.2975431892       18.9672080586       23.2767774443
 Pb        33.4798858861       19.0838577210       31.5408080868
 Pb        34.0856084346       20.2317038915       39.1299242549
 Cl        33.5206637186       16.4127006177       12.4328415235
 Cl        33.8667400660       16.4289068991       20.4606796837
 Cl        33.6886798041       16.7114090612       28.5258231937
 Cl        33.9728643270       16.3058633737       36.2745247356
 Cl        33.2687326209       21.3475648154       20.2536586019
 Cl        33.7667415099       21.7162108427       28.1740609297
 Cl        33.3651151531       21.2350862084       36.6075444080
 Cl        34.5717524831        9.2865251753       15.4124803744
 Cl        34.2503347673        9.3430153677       23.5350055486
 Cl        34.0248152554        9.0936937499       31.1589510353
 Cl        33.9600073495        8.6674073336       40.0621087862
 Cl        33.8178589527       13.8256943292       15.3602742018
 Cl        33.5853330653       13.9286540026       23.6144431969
 Cl        33.8878772191       13.6391787084       31.4202977106
 Cl        33.7097401281       13.9232303046       39.4507361330
 Cl        35.6550529926       24.6844975563       23.6287247140
  S        34.0015889609       24.1285518000       31.1708482975
 Pb        34.3335045648       11.2745559355       12.4267836163
 Pb        34.1246995640       11.5216269288       20.4016610775
 Pb        34.0831909755       11.4636323772       28.5360244027
 Pb        33.9835089099       11.1110584733       36.5333157402
 Pb        34.4762163979       19.2374079169       18.7195515402
 Pb        34.6491342113       19.0687128079       26.8322983954
 Pb        34.7330682598       19.0688638840       35.0694279698
  S        35.0192219714       16.9766507766       16.6700085400
  S        34.5970011405       17.0105445433       24.8424869372
  S        34.8202896564       16.9936967730       32.8396840453
  S        34.8461099818       20.8957409631       16.4741163284
  S        34.6580697393       21.2006582260       24.5981692087
  S        34.9776674473       21.0493064404       32.8763036430
  S        35.5875366003       10.7579854126        9.7511261489
  S        35.7881562096       11.6232832057       17.8540897846
  S        35.5527874901       11.5458909956       26.0443207303
  S        35.4780774365       11.2095708293       33.7452638627
  S        36.4065204078       11.1016228433       41.9931633660
 Pb        35.3477863666        8.2476230986       10.6728815143
 Pb        35.6170138268        8.9365928831       18.2039096816
 Pb        35.5419713891        8.8505755958       26.2280876430
 Pb        35.3465525582        8.4768584584       34.0604193159
 Pb        35.5986389240        8.5651647166       42.3145781464
 Pb        35.2096171758       14.6629070031       18.5972648407
 Pb        35.3703745276       14.7620734002       26.7044422774
 Pb        35.2845113545       14.1298529524       34.5580902232
 Pb        35.3761985924       23.2460972704       26.1895286593
 Pb        35.7650647124       16.0576545444       14.1338103053
 Pb        36.1461195813       16.0684830719       22.6334424971
 Pb        36.1552057928       16.2585077074       30.4938617618
 Pb        35.9755270984       16.4697614177       38.1507539663
 Pb        36.2206983960       21.6484103457       21.8420996884
 Pb        36.1300241680       21.9594203228       30.3951647445
  S        36.1629946194       18.6728542817       13.6188230700
  S        35.8535525750       18.9725333015       21.8020368384
  S        36.1158559033       19.1099737102       29.9719168920
  S        36.0967436441       19.0647410327       37.9398260311
  S        37.1597801716        9.0717135721       12.5706203785
  S        37.0078221014        9.8198620105       20.7368895746
  S        37.3391941667        9.6690574840       28.6369800981
  S        36.6322857481        8.9012485709       36.5154400600
  S        37.2027320063       13.0550387471       12.5410526047
  S        36.3163254723       13.5429908365       21.1246621189
  S        37.1443478405       13.6011126172       28.8487615724
  S        36.4638792691       13.2388433414       36.9445878737
 Pb        37.4264379365       10.9178548294       14.5984105825
 Pb        36.8865735446       11.5741744115       23.1453744758
 Pb        36.9974222391       11.5248679235       30.8116766560
 Pb        36.4409406767       10.6268570205       39.2313562032
 Pb        36.9148979601       19.1767128100       16.0558854189
 Pb        37.7899992411       19.4495902059       24.7341623781
 Pb        37.4765394581       19.3006326067       32.4537451764
 Cl        38.4483666964       15.7377910632       19.2823850432
 Cl        37.4347915429       16.9810669075       27.2645292699
 Cl        38.0145183606       16.5012822724       36.2116356668
 Cl        37.2621293329       21.1846936000       19.2406025860
 Cl        37.4689665068       21.3412626851       27.1672652230
 Cl        39.1271923760        8.9916830767       16.3477264581
 Cl        38.0477423956        9.0136992704       24.5870857479
 Cl        38.2667339484        7.9202890676       32.1147051091
 Cl        37.7437339821        8.2183873635       40.0059551711
 Cl        38.8904413816       14.6268161859       15.6387037639
 Cl        37.4769707464       14.2241198675       24.6638162511
 Cl        37.7476515524       14.1067443140       32.5603521338
 Pb        38.1601574524       11.0076448952       10.9853160820
 Pb        37.9801886633       12.0917973269       19.5772092947
 Pb        38.0718647053       11.7483794084       27.0725372946
 Pb        37.9094040316       11.1840887425       35.4744978758
 Pb        38.4723838688       18.9709099740       20.7346849063
 Pb        38.7932915414       19.2826849140       29.1034019827
  S        38.9071779711       17.1764142594       23.0332257455
  S        38.8404261376       17.1121123769       31.0801597018
  S        38.9315778427       20.9333937543       22.7052859760
  S        38.7597300376       21.2014652242       31.1597897168
  S        40.0399999040       11.2526468607       13.5273126324
  S        39.6593869414       11.6622450652       22.5261470307
  S        39.7849254640       11.4422033281       30.9252708856
  S        39.0857868947       11.0985448446       38.2889759384
 Pb        41.2842096017        9.1647850724       14.6902947705
 Pb        39.4540335395        9.0871382226       21.6626444031
 Pb        39.8807102801        9.0125510361       29.7416824300
 Pb        39.1424588091        8.5122961487       37.5270020184
 Pb        39.6263782857       13.9173391568       13.1757529652
 Pb        40.5699643448       15.5036378166       21.6120248157
 Pb        39.7153513136       14.7475528662       30.0054904176
 Pb        39.0603862734       13.7887779490       37.5605250613
 Pb        40.8726323014       16.2661396948       18.0432322068
 Pb        39.9306322816       16.2660755163       25.7807469842
 Pb        39.7819528780       15.5439150669       33.8513307523
  S        40.2766579648       19.0269475686       25.8762623497
  S        40.8257461509       10.3020419497       19.4570217626
  S        41.8649227183        9.9780411871       27.7501716653
  S        40.4627830290        9.4919290205       35.0155280525
  S        41.9854872790       13.8753297142       18.6779308603
  S        41.2534395011       13.2589490224       25.8497092033
  S        40.3456540412       13.3136819083       35.2211045511
 Pb        40.6562198784       12.0288541683       17.1811431429
 Pb        40.8151136721       10.6949353770       24.9631003409
 Pb        41.3386580663       11.4702695711       33.2849462004
 Pb        41.1088315917       19.0413135953       23.3491080833
  S        41.4654382067       17.5691283751       20.2815796408
 Cl        41.4077744760       16.1252150560       28.2482839199
  S        42.8146642570       10.5950024980       16.3178184107
 Cl        42.6346787309        7.7389684437       21.7009724866
 Cl        42.1681660926        8.5175012665       31.8400686795
 Cl        42.3382021688       16.2727967567       23.8754969630
 Cl        41.7341053854       14.5597158843       32.1147483926
 Pb        42.2523973617       12.1681208180       20.8761817878
 Pb        42.2136226565       12.6118437848       28.3637159429
  S        43.5578091067       10.7624421133       24.1035362975
 Pb        43.0240946671        8.9756353630       18.5831629158
 Pb        44.3597341267        9.9484826284       26.6925947502
 Pb        40.4871622920        7.3524600152       33.5540548004
 Pb        43.7902198847       13.4704866170       24.9540683700
  S        44.5249740411       10.6973876223       20.0512728935
  S        44.7627744966       12.5107450804       27.3343902451
