      64
 i =       25, E =      -917.6526438037
 Br        18.5297303494        9.7653004076        9.7670916739
 Br        18.5285744680        9.7879221810       15.2123131022
 Br         9.4637948614        9.4704488420        6.3448504613
 Br        18.5273500883       15.2099945783        9.7875491168
 Br        18.5336592547       15.2096961897       15.2080570453
 Cs         7.0509340771        7.0743209447        7.0724273584
 Cs         7.1949196580        7.1988803530       12.7325829010
 Br         9.8055142057        6.4482169412       15.2014068951
 Cs         7.1954840393       12.7304791486        7.2014277272
 Cs         7.2326504910       12.5589315176       12.5585080253
 Cs         7.2236910641       12.5406519131       17.7639489331
 Br        15.1961266910       15.1987824398        6.4608932191
 Cs         7.2214976208       17.7634644050       12.5420224894
 Br        15.2928895283       15.2923232864       12.4908618085
 Cs        12.7273439054        7.1919237966        7.1918687910
 Cs        12.5685567655        7.2223668369       12.5663826873
 Cs        12.5403593361        7.2282145402       17.7723493115
 Cs        12.5675284819       12.5664592214        7.2246673132
 Cs        12.5380596168       12.5341692945       12.5337344238
 Cs        12.5179424339       12.5171640639       17.7739272468
 Cs        12.5383827296       17.7721722117        7.2275123125
 Cs        12.5157895859       17.7754326455       12.5160919839
 Cs        12.5200598536       17.7751527683       17.7741537547
 Br         9.4617957511        6.3432480857        9.4677697307
 Cs        17.7694105875        7.2195930892       12.5431137495
 Br         9.6394729150       12.4348873118        9.6294177339
 Cs        17.7691726575       12.5412128890        7.2212847809
 Cs        17.7792208062       12.5164913116       12.5161957171
 Cs        17.7710870567       12.5245587014       17.7755666428
 Br         9.7067727185       12.4745780064       15.2770427871
 Cs        17.7701418722       17.7775475558       12.5206548283
 Br        15.2061394907       15.2090630689       18.5322245225
 Br        15.2843217118       12.4738002937        9.7015457904
 Br        15.2933995519       12.4923569663       15.2888519240
 Br         9.6382538329        9.6276640545       12.4356178128
 Br        15.2063656079       18.5270700811        9.7910432446
 Br        15.2053914079       18.5338084961       15.2064121124
 Br        12.4774650458        9.7026144238       15.2799691730
 Br         9.7706958067        9.7706194007       18.5276547167
 Br        12.4769825612       15.2812678889        9.7035080472
 Br         9.8052527364       15.2034963185        6.4495292640
 Br        12.4934711811       15.2937989690       15.2917378051
 Br        15.1944645050        6.4451984724        9.8090549883
 Br        15.1982181153        6.4610127351       15.2011447748
 Br         9.7061311998       15.2791728512       12.4756292772
 Pb         9.4626426103        9.4582189497        9.4592209045
 Pb         9.4405504345        9.4387763171       15.6186912281
 Br         9.7916651820       15.2056271921       18.5253358030
 Pb         9.4393469084       15.6193118435        9.4394397751
 Pb         9.4408716934       15.5822333233       15.5834589285
 Br         9.7649803485       18.5282669310        9.7687189704
 Br         9.7887470751       18.5244923652       15.2084707144
 Br        12.4390057968        9.6274531336        9.6285902783
 Br        15.1954109201        9.8088541662        6.4466659142
 Pb        15.6196603732        9.4358410573        9.4372140569
 Pb        15.5861867133        9.4401938025       15.5845954280
 Br        15.2858402552        9.7009131891       12.4748140398
 Pb        15.5850486676       15.5840685946        9.4386969450
 Pb        15.5811261615       15.5817667009       15.5798302434
 Br         6.3494758359        9.4844994799        9.4827830132
 Br         6.4507952248        9.8136098833       15.1981917888
 Br        15.2079075227        9.7949865072       18.5270988557
 Br         6.4498176271       15.1970593972        9.8134855186
 Br         6.4638406356       15.1914730408       15.1928906783
