      11
 i =        9, E =      -165.1520904602
 Br         5.8794914564        8.9999898607        9.0000145828
 Pb         9.0000002954        9.0000074991        8.9999984033
 Br         9.0000038965        9.0000080283       12.1204932658
 Br         8.9999997469       12.1205078560        9.0000102145
 Br        12.1205085655        8.9999912635        8.9999970576
 Cs         6.6273165191        6.6273175946        6.6273138847
 Cs        11.3726838379       11.3726804360        6.6273169085
 Br         9.0000044852        8.9999944460        5.8794811969
 Cs         6.6273023827       11.3726895202       11.3726871480
 Br         9.0000005457        5.8795027677        9.0000019576
 Cs        11.3726866623        6.6273083219       11.3726852097
